# generated using pymatgen
data_K2O
_symmetry_space_group_name_H-M   P3
_cell_length_a   7.08899862
_cell_length_b   7.08899862
_cell_length_c   4.36407928
_cell_angle_alpha   90.00000000
_cell_angle_beta   90.00000000
_cell_angle_gamma   120.00000000
_symmetry_Int_Tables_number   143
_chemical_formula_structural   K2O
_chemical_formula_sum   'K6 O3'
_cell_volume   189.92977201
_cell_formula_units_Z   3
loop_
 _symmetry_equiv_pos_site_id
 _symmetry_equiv_pos_as_xyz
  1  'x, y, z'
  2  '-y, x-y, z'
  3  '-x+y, -x, z'
loop_
 _atom_site_type_symbol
 _atom_site_label
 _atom_site_symmetry_multiplicity
 _atom_site_fract_x
 _atom_site_fract_y
 _atom_site_fract_z
 _atom_site_occupancy
  K  K0  3  0.35193498  0.34659957  0.54149185  1
  K  K1  1  0.00000000  0.00000000  0.79156881  1
  K  K2  1  0.61134638  0.64047423  0.72273699  1
  K  K3  1  0.66433774  0.70415982  0.85830861  1
  O  O4  3  0.29851102  0.62554910  0.38832106  1
