# generated using pymatgen
data_Nb3Cl8
_symmetry_space_group_name_H-M   P-3m1
_cell_length_a   6.83140353
_cell_length_b   6.83140353
_cell_length_c   13.74889995
_cell_angle_alpha   90.00000000
_cell_angle_beta   90.00000000
_cell_angle_gamma   120.00000000
_symmetry_Int_Tables_number   164
_chemical_formula_structural   Nb3Cl8
_chemical_formula_sum   'Nb6 Cl16'
_cell_volume   555.67193533
_cell_formula_units_Z   2
loop_
 _symmetry_equiv_pos_site_id
 _symmetry_equiv_pos_as_xyz
  1  'x, y, z'
  2  '-x, -y, -z'
  3  '-y, x-y, z'
  4  'y, -x+y, -z'
  5  '-x+y, -x, z'
  6  'x-y, x, -z'
  7  'y, x, -z'
  8  '-y, -x, z'
  9  'x-y, -y, -z'
  10  '-x+y, y, z'
  11  '-x, -x+y, -z'
  12  'x, x-y, z'
loop_
 _atom_site_type_symbol
 _atom_site_label
 _atom_site_symmetry_multiplicity
 _atom_site_fract_x
 _atom_site_fract_y
 _atom_site_fract_z
 _atom_site_occupancy
  Nb  Nb0  6  0.00000000  0.35162335  0.50000000  1
  Cl  Cl1  12  0.33223512  0.90200630  0.88802845  1
  Cl  Cl2  2  0.98843465  0.34985365  0.52575509  1
  Cl  Cl3  2  0.54578269  0.01160819  0.05112510  1
