# generated using pymatgen
data_V3S4
_symmetry_space_group_name_H-M   P6_3/m
_cell_length_a   9.09243449
_cell_length_b   9.09243449
_cell_length_c   3.26322035
_cell_angle_alpha   90.00000000
_cell_angle_beta   90.00000000
_cell_angle_gamma   120.00000000
_symmetry_Int_Tables_number   176
_chemical_formula_structural   V3S4
_chemical_formula_sum   'V6 S8'
_cell_volume   233.63472583
_cell_formula_units_Z   2
loop_
 _symmetry_equiv_pos_site_id
 _symmetry_equiv_pos_as_xyz
  1  'x, y, z'
  2  '-x, -y, -z'
  3  'x-y, x, z+1/2'
  4  '-x+y, -x, -z+1/2'
  5  '-y, x-y, z'
  6  'y, -x+y, -z'
  7  '-x, -y, z+1/2'
  8  'x, y, -z+1/2'
  9  '-x+y, -x, z'
  10  'x-y, x, -z'
  11  'y, -x+y, z+1/2'
  12  '-y, x-y, -z+1/2'
loop_
 _atom_site_type_symbol
 _atom_site_label
 _atom_site_symmetry_multiplicity
 _atom_site_fract_x
 _atom_site_fract_y
 _atom_site_fract_z
 _atom_site_occupancy
  V  V0  6  0.12266480  0.90604678  0.25000000  1
  S  S1  6  0.00000000  0.50000000  0.00000000  1
  S  S2  2  0.11593471  0.86816163  0.25000000  1
