# generated using pymatgen
data_Ni2O3
_symmetry_space_group_name_H-M   Cc
_cell_length_a   9.46689380
_cell_length_b   5.57174863
_cell_length_c   5.98907517
_cell_angle_alpha   90.00000000
_cell_angle_beta   123.09320959
_cell_angle_gamma   90.00000000
_symmetry_Int_Tables_number   9
_chemical_formula_structural   Ni2O3
_chemical_formula_sum   'Ni8 O12'
_cell_volume   264.66136723
_cell_formula_units_Z   4
loop_
 _symmetry_equiv_pos_site_id
 _symmetry_equiv_pos_as_xyz
  1  'x, y, z'
  2  'x, -y, z+1/2'
  3  'x+1/2, y+1/2, z'
  4  'x+1/2, -y+1/2, z+1/2'
loop_
 _atom_site_type_symbol
 _atom_site_label
 _atom_site_symmetry_multiplicity
 _atom_site_fract_x
 _atom_site_fract_y
 _atom_site_fract_z
 _atom_site_occupancy
  Ni  Ni0  4  0.44273797  0.95009257  0.21943873  1
  Ni  Ni1  4  0.17916956  0.76692923  0.11160700  1
  O  O2  4  0.87110313  0.39865006  0.43459313  1
  O  O3  4  0.40862503  0.69476206  0.00849010  1
  O  O4  4  0.18557132  0.59260277  0.86226205  1
