# generated using pymatgen
data_Cu2S
_symmetry_space_group_name_H-M   P4_32_12
_cell_length_a   3.99359027
_cell_length_b   3.99359027
_cell_length_c   11.23716739
_cell_angle_alpha   90.00000000
_cell_angle_beta   90.00000000
_cell_angle_gamma   90.00000000
_symmetry_Int_Tables_number   96
_chemical_formula_structural   Cu2S
_chemical_formula_sum   'Cu8 S4'
_cell_volume   179.21892224
_cell_formula_units_Z   4
loop_
 _symmetry_equiv_pos_site_id
 _symmetry_equiv_pos_as_xyz
  1  'x, y, z'
  2  '-y+1/2, x+1/2, z+3/4'
  3  '-x, -y, z+1/2'
  4  'y+1/2, -x+1/2, z+1/4'
  5  'x+1/2, -y+1/2, -z+1/4'
  6  '-y, -x, -z+1/2'
  7  '-x+1/2, y+1/2, -z+3/4'
  8  'y, x, -z'
loop_
 _atom_site_type_symbol
 _atom_site_label
 _atom_site_symmetry_multiplicity
 _atom_site_fract_x
 _atom_site_fract_y
 _atom_site_fract_z
 _atom_site_occupancy
  Cu  Cu0  8  0.94965361  0.60313402  0.41622591  1
  S  S1  4  0.33913222  0.28997293  0.50000000  1
