# generated using pymatgen
data_K2O
_symmetry_space_group_name_H-M   P3
_cell_length_a   7.08899862
_cell_length_b   7.08899862
_cell_length_c   4.36407928
_cell_angle_alpha   90.00000000
_cell_angle_beta   90.00000000
_cell_angle_gamma   120.00000000
_symmetry_Int_Tables_number   143
_chemical_formula_structural   K2O
_chemical_formula_sum   'K6 O3'
_cell_volume   189.92977201
_cell_formula_units_Z   3
loop_
 _symmetry_equiv_pos_site_id
 _symmetry_equiv_pos_as_xyz
  1  'x, y, z'
  2  '-y, x-y, z'
  3  '-x+y, -x, z'
loop_
 _atom_site_type_symbol
 _atom_site_label
 _atom_site_symmetry_multiplicity
 _atom_site_fract_x
 _atom_site_fract_y
 _atom_site_fract_z
 _atom_site_occupancy
  K  K0  3  0.12027947  0.68964119  0.30010687  1
  K  K1  1  0.00000000  0.00000000  0.57398952  1
  K  K2  1  0.33333333  0.66666667  0.84387992  1
  K  K3  1  0.66666667  0.33333333  0.44261037  1
  O  O4  3  0.18350890  0.41921785  0.01489867  1
