# generated using pymatgen
data_Cr3N4
_symmetry_space_group_name_H-M   P31c
_cell_length_a   8.18294095
_cell_length_b   8.18294095
_cell_length_c   6.03048207
_cell_angle_alpha   90.00000000
_cell_angle_beta   90.00000000
_cell_angle_gamma   120.00000000
_symmetry_Int_Tables_number   159
_chemical_formula_structural   Cr3N4
_chemical_formula_sum   'Cr12 N16'
_cell_volume   349.70472210
_cell_formula_units_Z   4
loop_
 _symmetry_equiv_pos_site_id
 _symmetry_equiv_pos_as_xyz
  1  'x, y, z'
  2  '-y, x-y, z'
  3  '-x+y, -x, z'
  4  'y, x, z+1/2'
  5  'x-y, -y, z+1/2'
  6  '-x, -x+y, z+1/2'
loop_
 _atom_site_type_symbol
 _atom_site_label
 _atom_site_symmetry_multiplicity
 _atom_site_fract_x
 _atom_site_fract_y
 _atom_site_fract_z
 _atom_site_occupancy
  Cr  Cr0  6  0.09091750  0.28752940  0.99923222  1
  Cr  Cr1  2  0.00000000  0.00000000  0.37817460  1
  Cr  Cr2  2  0.33333333  0.66666667  0.43221031  1
  Cr  Cr3  2  0.33333333  0.66666667  0.79500599  1
  N  N4  6  0.11913257  0.45084410  0.57361163  1
  N  N5  6  0.24378148  0.74900961  0.10769127  1
  N  N6  2  0.00000000  0.00000000  0.07415354  1
  N  N7  2  0.33333333  0.66666667  0.04356658  1
