# generated using pymatgen
data_MnO2
_symmetry_space_group_name_H-M   P6_3mc
_cell_length_a   5.78729626
_cell_length_b   5.78729626
_cell_length_c   8.87613161
_cell_angle_alpha   90.00000000
_cell_angle_beta   90.00000000
_cell_angle_gamma   120.00000000
_symmetry_Int_Tables_number   186
_chemical_formula_structural   MnO2
_chemical_formula_sum   'Mn8 O16'
_cell_volume   257.45764652
_cell_formula_units_Z   8
loop_
 _symmetry_equiv_pos_site_id
 _symmetry_equiv_pos_as_xyz
  1  'x, y, z'
  2  'x-y, x, z+1/2'
  3  '-y, x-y, z'
  4  '-x, -y, z+1/2'
  5  '-x+y, -x, z'
  6  'y, -x+y, z+1/2'
  7  'y, x, z+1/2'
  8  'x, x-y, z'
  9  'x-y, -y, z+1/2'
  10  '-y, -x, z'
  11  '-x, -x+y, z+1/2'
  12  '-x+y, y, z'
loop_
 _atom_site_type_symbol
 _atom_site_label
 _atom_site_symmetry_multiplicity
 _atom_site_fract_x
 _atom_site_fract_y
 _atom_site_fract_z
 _atom_site_occupancy
  Mn  Mn0  6  0.10968604  0.21937208  0.89600082  1
  Mn  Mn1  2  0.00000000  0.00000000  0.26648217  1
  O  O2  6  0.15346189  0.84653811  0.43196009  1
  O  O3  6  0.25030558  0.50061117  0.89350157  1
  O  O4  2  0.33333333  0.66666667  0.08214039  1
  O  O5  2  0.33333333  0.66666667  0.88933027  1
