# generated using pymatgen
data_CeAs2
_symmetry_space_group_name_H-M   Pnma
_cell_length_a   7.08415241
_cell_length_b   3.99448990
_cell_length_c   9.84069402
_cell_angle_alpha   90.00000000
_cell_angle_beta   90.00000000
_cell_angle_gamma   90.00000000
_symmetry_Int_Tables_number   62
_chemical_formula_structural   CeAs2
_chemical_formula_sum   'Ce4 As8'
_cell_volume   278.46777956
_cell_formula_units_Z   4
loop_
 _symmetry_equiv_pos_site_id
 _symmetry_equiv_pos_as_xyz
  1  'x, y, z'
  2  '-x, -y, -z'
  3  '-x+1/2, -y, z+1/2'
  4  'x+1/2, y, -z+1/2'
  5  'x+1/2, -y+1/2, -z+1/2'
  6  '-x+1/2, y+1/2, z+1/2'
  7  '-x, y+1/2, -z'
  8  'x, -y+1/2, z'
loop_
 _atom_site_type_symbol
 _atom_site_label
 _atom_site_symmetry_multiplicity
 _atom_site_fract_x
 _atom_site_fract_y
 _atom_site_fract_z
 _atom_site_occupancy
  Ce  Ce0  4  0.20499366  0.25000000  0.77878051  1
  As  As1  4  0.00000000  0.00000000  0.00000000  1
  As  As2  4  0.22809741  0.75000000  0.43598053  1
