# generated using pymatgen
data_As2O3
_symmetry_space_group_name_H-M   P4_2/n
_cell_length_a   7.02500328
_cell_length_b   7.02500328
_cell_length_c   8.22195837
_cell_angle_alpha   90.00000000
_cell_angle_beta   90.00000000
_cell_angle_gamma   90.00000000
_symmetry_Int_Tables_number   86
_chemical_formula_structural   As2O3
_chemical_formula_sum   'As8 O12'
_cell_volume   405.75916318
_cell_formula_units_Z   4
loop_
 _symmetry_equiv_pos_site_id
 _symmetry_equiv_pos_as_xyz
  1  'x, y, z'
  2  '-y+1/2, x+1/2, z+1/2'
  3  '-x, -y, z'
  4  'y+1/2, -x+1/2, z+1/2'
  5  '-x+1/2, -y+1/2, -z+1/2'
  6  'y, -x, -z'
  7  'x+1/2, y+1/2, -z+1/2'
  8  '-y, x, -z'
loop_
 _atom_site_type_symbol
 _atom_site_label
 _atom_site_symmetry_multiplicity
 _atom_site_fract_x
 _atom_site_fract_y
 _atom_site_fract_z
 _atom_site_occupancy
  As  As0  4  0.00000000  0.50000000  0.01183857  1
  As  As1  4  0.25000000  0.25000000  0.25000000  1
  O  O2  8  0.18362190  0.19882169  0.88181507  1
  O  O3  2  0.00000000  0.00000000  0.00000000  1
  O  O4  2  0.00000000  0.00000000  0.50000000  1
