# generated using pymatgen
data_Ni2O3
_symmetry_space_group_name_H-M   Cc
_cell_length_a   9.46689380
_cell_length_b   5.57174863
_cell_length_c   5.98907517
_cell_angle_alpha   90.00000000
_cell_angle_beta   123.09320959
_cell_angle_gamma   90.00000000
_symmetry_Int_Tables_number   9
_chemical_formula_structural   Ni2O3
_chemical_formula_sum   'Ni8 O12'
_cell_volume   264.66136723
_cell_formula_units_Z   4
loop_
 _symmetry_equiv_pos_site_id
 _symmetry_equiv_pos_as_xyz
  1  'x, y, z'
  2  'x, -y, z+1/2'
  3  'x+1/2, y+1/2, z'
  4  'x+1/2, -y+1/2, z+1/2'
loop_
 _atom_site_type_symbol
 _atom_site_label
 _atom_site_symmetry_multiplicity
 _atom_site_fract_x
 _atom_site_fract_y
 _atom_site_fract_z
 _atom_site_occupancy
  Ni  Ni0  4  0.30686384  0.24790038  0.30563574  1
  Ni  Ni1  4  0.49284201  0.28823283  0.47269019  1
  O  O2  4  0.11044028  0.15744079  0.81319412  1
  O  O3  4  0.34031956  0.17316458  0.50633132  1
  O  O4  4  0.39800166  0.10255107  0.97976946  1
