# generated using pymatgen
data_NbCl3O
_symmetry_space_group_name_H-M   P-42_1m
_cell_length_a   11.50113489
_cell_length_b   11.50113489
_cell_length_c   4.00107222
_cell_angle_alpha   90.00000000
_cell_angle_beta   90.00000000
_cell_angle_gamma   90.00000000
_symmetry_Int_Tables_number   113
_chemical_formula_structural   NbCl3O
_chemical_formula_sum   'Nb4 Cl12 O4'
_cell_volume   529.24624412
_cell_formula_units_Z   4
loop_
 _symmetry_equiv_pos_site_id
 _symmetry_equiv_pos_as_xyz
  1  'x, y, z'
  2  'y, -x, -z'
  3  '-x, -y, z'
  4  '-y, x, -z'
  5  'x+1/2, -y+1/2, -z'
  6  'y+1/2, x+1/2, z'
  7  '-x+1/2, y+1/2, -z'
  8  '-y+1/2, -x+1/2, z'
loop_
 _atom_site_type_symbol
 _atom_site_label
 _atom_site_symmetry_multiplicity
 _atom_site_fract_x
 _atom_site_fract_y
 _atom_site_fract_z
 _atom_site_occupancy
  Nb  Nb0  2  0.00000000  0.00000000  0.00000000  1
  Nb  Nb1  2  0.00000000  0.00000000  0.50000000  1
  Cl  Cl2  8  0.01830898  0.38128188  0.94587476  1
  Cl  Cl3  4  0.09515919  0.40484081  0.33962739  1
  O  O4  4  0.23344964  0.26655036  0.47390916  1
