# generated using pymatgen
data_In(IO3)3
_symmetry_space_group_name_H-M   P6_3
_cell_length_a   9.72271990
_cell_length_b   9.72271990
_cell_length_c   5.42318386
_cell_angle_alpha   90.00000000
_cell_angle_beta   90.00000000
_cell_angle_gamma   120.00000000
_symmetry_Int_Tables_number   173
_chemical_formula_structural   In(IO3)3
_chemical_formula_sum   'In2 I6 O18'
_cell_volume   443.97703746
_cell_formula_units_Z   2
loop_
 _symmetry_equiv_pos_site_id
 _symmetry_equiv_pos_as_xyz
  1  'x, y, z'
  2  'x-y, x, z+1/2'
  3  '-y, x-y, z'
  4  '-x, -y, z+1/2'
  5  '-x+y, -x, z'
  6  'y, -x+y, z+1/2'
loop_
 _atom_site_type_symbol
 _atom_site_label
 _atom_site_symmetry_multiplicity
 _atom_site_fract_x
 _atom_site_fract_y
 _atom_site_fract_z
 _atom_site_occupancy
  In  In0  2  0.00000000  0.00000000  0.07124727  1
  I  I1  2  0.33333333  0.66666667  0.05471778  1
  I  I2  2  0.33333333  0.66666667  0.39459826  1
  I  I3  2  0.33333333  0.66666667  0.71355559  1
  O  O4  6  0.02565334  0.43882743  0.37589525  1
  O  O5  6  0.14391592  0.54641085  0.63887013  1
  O  O6  6  0.17715110  0.77943458  0.61710883  1
